
#======================================================================
# CRYSTAL DATA
#----------------------------------------------------------------------
data_VESTA_phase_1

_chemical_name_common                  'Ca4 Ru4 O12'
_cell_length_a                         5.524000
_cell_length_b                         7.649000
_cell_length_c                         5.354000
_cell_angle_alpha                      90.000000
_cell_angle_beta                       90.000000
_cell_angle_gamma                      90.000000
_cell_volume                           226.222985
_space_group_name_H-M_alt              'P n m a'
_space_group_IT_number                 62

loop_
_space_group_symop_operation_xyz
   'x, y, z'
   '-x, -y, -z'
   '-x+1/2, -y, z+1/2'
   'x+1/2, y, -z+1/2'
   '-x, y+1/2, -z'
   'x, -y+1/2, z'
   'x+1/2, -y+1/2, -z+1/2'
   '-x+1/2, y+1/2, z+1/2'

loop_
   _atom_site_label
   _atom_site_occupancy
   _atom_site_fract_x
   _atom_site_fract_y
   _atom_site_fract_z
   _atom_site_adp_type
   _atom_site_U_iso_or_equiv
   _atom_site_type_symbol
   Ca0        1.0     0.944800     0.250000     0.013900    Uiso  ? Ca
   Ru1        1.0     0.000000     0.000000     0.500000    Uiso  ? Ru
   O2         1.0     0.025800     0.250000     0.592000    Uiso  ? O
   O3         1.0     0.202100     0.451800     0.197300    Uiso  ? O
